Version 4
SHEET 1 880 680
WIRE 80 208 16 208
WIRE 256 208 160 208
WIRE 352 208 256 208
WIRE 528 208 352 208
WIRE 16 288 16 208
WIRE 256 288 256 208
WIRE 352 288 352 208
WIRE 528 288 528 208
WIRE 16 496 16 368
WIRE 256 496 256 368
WIRE 256 496 16 496
WIRE 352 496 352 368
WIRE 352 496 256 496
WIRE 528 496 528 384
WIRE 528 496 352 496
WIRE 16 528 16 496
FLAG 16 528 0
SYMBOL voltage 16 272 R0
SYMATTR InstName V
SYMATTR Value 5V
SYMBOL Res 336 272 R0
SYMATTR InstName R2
SYMATTR Value 5
SYMBOL Res 272 384 R180
WINDOW 0 36 76 Left 2
WINDOW 3 36 40 Left 2
SYMATTR InstName R1
SYMATTR Value 5
SYMBOL ammeter 528 336 R0
SYMATTR InstName R3
SYMBOL Res 176 192 R90
WINDOW 0 0 56 VBottom 2
WINDOW 3 32 56 VTop 2
SYMATTR InstName R4
SYMATTR Value 5
TEXT 64 520 Left 2 !.op
