Version 4
SHEET 1 880 680
WIRE 96 208 16 208
WIRE 272 208 176 208
WIRE 336 208 272 208
WIRE 480 208 416 208
WIRE 16 288 16 208
WIRE 272 288 272 208
WIRE 16 496 16 368
WIRE 272 496 272 384
WIRE 272 496 16 496
WIRE 480 496 480 208
WIRE 480 496 272 496
WIRE 16 528 16 496
FLAG 16 528 0
FLAG 272 208 V1
SYMBOL voltage 16 272 R0
SYMATTR InstName V
SYMATTR Value 5V
SYMBOL Res 320 224 R270
WINDOW 0 32 56 VTop 2
WINDOW 3 0 56 VBottom 2
SYMATTR InstName R2
SYMATTR Value 5
SYMBOL Res 192 192 R90
WINDOW 0 0 56 VBottom 2
WINDOW 3 32 56 VTop 2
SYMATTR InstName R1
SYMATTR Value 5
SYMBOL ammeter 272 336 R0
SYMATTR InstName R3
TEXT 80 512 Left 2 !.op
