Version 4
SHEET 1 880 680
WIRE 176 208 16 208
WIRE 352 208 176 208
WIRE 528 208 352 208
WIRE 16 288 16 208
WIRE 176 288 176 208
WIRE 352 288 352 208
WIRE 528 288 528 208
WIRE 16 496 16 368
WIRE 176 496 176 368
WIRE 176 496 16 496
WIRE 352 496 352 368
WIRE 352 496 176 496
WIRE 528 496 528 384
WIRE 528 496 352 496
WIRE 16 528 16 496
FLAG 16 528 0
SYMBOL voltage 16 272 R0
SYMATTR InstName V
SYMATTR Value 5V
SYMBOL Res 336 272 R0
SYMATTR InstName R2
SYMATTR Value 5
SYMBOL Res 192 384 R180
WINDOW 0 36 76 Left 2
WINDOW 3 36 40 Left 2
SYMATTR InstName R1
SYMATTR Value 5
SYMBOL ammeter 528 336 R0
SYMATTR InstName R3
TEXT 64 520 Left 2 !.op
