Version 4
SHEET 1 880 680
WIRE 96 48 64 48
WIRE 208 48 176 48
WIRE 64 80 64 48
WIRE 64 80 16 80
WIRE 208 80 208 48
WIRE 288 80 208 80
WIRE 64 128 64 80
WIRE 112 128 64 128
WIRE 208 128 208 80
WIRE 208 128 176 128
WIRE 288 144 288 80
WIRE 16 160 16 80
WIRE 16 272 16 240
WIRE 288 272 288 224
WIRE 288 272 16 272
FLAG 16 272 0
FLAG 288 80 Vo
IOPIN 288 80 Out
SYMBOL res 272 128 R0
SYMATTR InstName R1
SYMATTR Value 1
SYMBOL voltage 16 144 R0
WINDOW 123 24 124 Left 2
WINDOW 39 0 0 Left 2
SYMATTR Value2 AC 1
SYMATTR InstName V1
SYMATTR Value ""
SYMBOL ind 80 64 R270
WINDOW 0 32 56 VTop 2
WINDOW 3 5 56 VBottom 2
SYMATTR InstName L1
SYMATTR Value 10
SYMBOL cap 112 144 R270
WINDOW 0 32 32 VTop 2
WINDOW 3 0 32 VBottom 2
SYMATTR InstName C1
SYMATTR Value 0.01
TEXT 72 304 Left 2 !.ac dec 10 0.1 10
