Version 4
SHEET 1 880 680
WIRE 176 208 16 208
WIRE 208 208 176 208
WIRE 400 208 288 208
WIRE 528 208 480 208
WIRE 176 272 176 208
WIRE 16 288 16 208
WIRE 16 496 16 368
WIRE 176 496 176 368
WIRE 176 496 16 496
WIRE 528 496 528 208
WIRE 528 496 176 496
WIRE 16 528 16 496
FLAG 16 528 0
SYMBOL voltage 16 272 R0
SYMATTR InstName V
SYMATTR Value 5V
SYMBOL Res 496 192 R90
WINDOW 0 0 56 VBottom 2
WINDOW 3 32 56 VTop 2
SYMATTR InstName R2
SYMATTR Value 5
SYMBOL Res 304 192 R90
WINDOW 0 0 56 VBottom 2
WINDOW 3 32 56 VTop 2
SYMATTR InstName R1
SYMATTR Value 5
SYMBOL voltmeter 176 320 R0
SYMATTR InstName R3
TEXT 56 504 Left 2 !.op
